# ====================================
read_data       Output/data.2T-SiC_Modelled
Reading data file ...
  orthogonal box = (0 0 0) to (87.2 87.2 87.2)
  reading atoms ...
  64000 atoms
  reading velocities ...
  64000 velocities
Finding 1-2 1-3 1-4 neighbors ...
     0 = max # of 1-2 neighbors
     0 = max # of 1-3 neighbors
     0 = max # of 1-4 neighbors
     1 = max # of special neighbors
group           Center type 1 2
41089 atoms in group Center
group           Perim  type 3 4
22911 atoms in group Perim
# ====================================
pair_style      gw/zbl
pair_coeff      * *  potential/SiC.gw.zbl   C  Si   C   Si    C
Reading gw/zbl potential file potential/SiC.gw.zbl with DATE: 2016-05-06

# -- OR ---
# pair_style      tersoff/zbl
# pair_coeff      * *  potential/SiC.tersoff.zbl   C  Si   C   Si    C

# ====================================
velocity        all create 300 5287287
thermo_style    custom step temp epair press ke atoms time
thermo          50
thermo_modify   lost warn

######################################
# DUMP

dump            DUMP1 all custom 50 Output/dump-2T-SiC-GW-1.lammpstrj id type xs ys zs x y z vx vy vz
# dump_modify     DUMP2 time yes units yes thermo yes

# -------------------------------------
fix             N1 all    npt temp 300 300 0.1 iso 0 0 0.1
run             4000
  update every 10 steps, delay 10 steps, check yes
Step          Temp          E_pair         Press          KinEng        Atoms         Time
0   300           -410365.09      4031.5843      2481.756           64000   0
Averages over the last 41 of 81 rows, steps 2000 to 4000:
Temp E_pair Press KinEng Atoms
300.082 -407846 8.94472 2482.43 64000
Loop time of 423.59 on 4 procs for 4000 steps with 64000 atoms

unfix           N1
fix             N1 Perim  temp/berendsen 300 300 0.1
fix             N2 all    nve
run             20000 upto
Step          Temp          E_pair         Press          KinEng        Atoms         Time
4000   296.49307     -407807.38      651.09155      2452.7449          64000   4
Averages over the last 161 of 321 rows, steps 12000 to 20000:
Temp E_pair Press KinEng Atoms
300.402 -407844 704.069 2485.08 64000
Loop time of 1979.76 on 4 procs for 16000 steps with 64000 atoms

# -------------------------------------
group           PKA id 33684
1 atoms in group PKA
velocity        PKA set 214.2527317 642.7581950 1071.2636584
# -------------------------------------
fix             D1 all dt/reset 100 0.0001 0.1 0.017   units box
fix             N2 all nve

run             50000 upto
Step          Temp          E_pair         Press          KinEng        Atoms         Time
20000   582.12852     -407838.23      4394.8968      4815.6699          64000   20
Averages over the last 301 of 601 rows, steps 35000 to 50000:
Temp E_pair Press KinEng Atoms
314.978 -407419 1387.85 2605.66 64000
Loop time of 3922.21 on 4 procs for 30000 steps with 64000 atoms
